61
Coordinates from ORCA-job opt-s2-mecn E -1471.099432985954
  C          -0.27693930793157     -2.65373829002031      7.83471387884966
  C          -1.22486275543360     -1.78870983854470      7.28153405036419
  C          -1.35048879048102     -1.70113281969896      5.89268903580696
  C          -0.54328657116535     -2.46803485205074      5.06104635471921
  C           0.41188381971694     -3.33975094304815      5.61621025316060
  C           0.53978769232448     -3.42345024426321      7.01538254120197
  N           1.23839378774826     -4.10713665860600      4.77924744598241
  C           1.72217702374086     -3.55286171689087      3.57578727479437
  C           1.59558887165739     -5.41885182932968      5.13278657746839
  C           0.66280965963995     -6.26790756898253      5.75716126448343
  C           1.02423086093659     -7.56561518776404      6.09812478959687
  C           2.30876033176928     -8.04100469958731      5.82109599774197
  C           3.23478021713218     -7.20115679009528      5.19710814438840
  C           2.88840943814799     -5.89982826917086      4.85382853869817
  C           1.73054405003995     -4.31052083337391      2.39268474659200
  C           2.21498244002569     -3.76417355506309      1.21403215818618
  C           2.70893403645449     -2.44301593867932      1.15584929669245
  C           2.68743979364796     -1.69759674279563      2.35442770501104
  C           2.20805149089568     -2.23504708836365      3.53926418129342
  C           3.22633982832710     -1.87052880310997     -0.09804036152754
  C           3.73084920175967     -2.69178718068975     -1.13168836358443
  C           4.22309685235021     -2.15532302687054     -2.30924311582324
  C           4.23734987713540     -0.75655635987796     -2.53372773770550
  C           3.72655063637719      0.06986941254975     -1.49892955493240
  C           3.24237888204132     -0.47433481699755     -0.32319569608620
  C           4.75048133645735     -0.23052841633651     -3.76271548162566
  N           4.78368980954122      1.06073334482445     -4.01165370686876
  N           5.28086946433185      1.40963294466394     -5.18780215512690
  C           5.37563320177131      2.66266248696632     -5.59887580580003
  C           5.91479747955001      2.98657485941459     -6.88616495726848
  C           5.99330808248958      4.32331939394718     -7.29132917174846
  C           6.50937188296634      4.68468253804839     -8.54573374444271
  C           6.95962886119469      3.68775940664501     -9.41955157053988
  C           6.89868654048600      2.34719906621266     -9.05101864106635
  C           6.38072429049993      1.92671253381356     -7.78249577509410
  O           6.32574354392075      0.70620409666674     -7.44951813316477
  H          -0.16128283946020     -2.71897615231043      8.91950390081428
  H          -1.86243219031988     -1.18397145409188      7.93076667979666
  H          -2.09610396015557     -1.03573164719829      5.45035131354801
  H          -0.65918040173153     -2.41171601207293      3.97695210735323
  H           1.29624347281194     -4.07803205181074      7.45268869515093
  H          -0.34982320691920     -5.91018762463451      5.95349189961927
  H           0.28827510312000     -8.21928945895410      6.57300060015056
  H           2.58648227013409     -9.06316261824987      6.08903405548884
  H           4.24525139403647     -7.55996098813967      4.98590611902130
  H           3.62160260444718     -5.24064712391008      4.38500988171575
  H           1.33154367419632     -5.32722164956948      2.39711609774250
  H           2.17754906346650     -4.37149188688309      0.30722592125147
  H           3.08864980793478     -0.68204420088926      2.37142720592090
  H           2.23282871787241     -1.64026247331095      4.45494974707286
  H           3.76081823337749     -3.77588787945089     -0.99847556660824
  H           4.61697532109427     -2.82230190317581     -3.08189991082210
  H           3.71246950048549      1.15246146832106     -1.64432535316092
  H           2.84118692487793      0.20082350950255      0.43688503659177
  H           5.12276628359792     -0.94906988839427     -4.51067110404354
  H           5.02148366867885      3.44095593854974     -4.91645444548981
  H           5.64043697251132      5.10184078081139     -6.60771343009461
  H           6.55633302111358      5.73776922897706     -8.83232192818059
  H           7.36262133051757      3.96278756504073    -10.39843645252417
  H           7.24772375983828      1.56033693086910     -9.72559148119898
  H           5.64318223940778      0.72227358543266     -5.90528116374169
