61
Coordinates from ORCA-job opt-gs-mecn E -1471.206425687178
  C          -0.11587292970707     -2.51955669898482      7.84426261188527
  C          -1.10163147777484     -1.68244467341207      7.31911871291869
  C          -1.29778278411916     -1.64244427828915      5.93757909903491
  C          -0.52578940611479     -2.43300218135755      5.08933386153314
  C           0.47266620879730     -3.26799275769290      5.61372722697170
  C           0.67199343441153     -3.30117296667013      7.00216367681329
  N           1.26151894607101     -4.07347150960889      4.75922013359533
  C           1.77509873945451     -3.54789920621079      3.56263376079777
  C           1.51714564436930     -5.41773051276191      5.11819901188294
  C           0.48842531081442     -6.22328073349240      5.62969146037228
  C           0.74489388215076     -7.54282396418977      5.99549527424593
  C           2.02173479197374     -8.08597298142704      5.84418069539323
  C           3.04571031057369     -7.28874505736550      5.32968026265029
  C           2.80217470581977     -5.96342663089395      4.97672960870243
  C           1.88569194797734     -4.34530618097425      2.41047783491472
  C           2.39825693018898     -3.82190572200746      1.23097396834432
  C           2.80809057592074     -2.48025551927083      1.13521451532710
  C           2.68724637715782     -1.68986162868141      2.29197508546000
  C           2.19213536942576     -2.20824006995906      3.48112098738737
  C           3.34046059250901     -1.92448230453827     -0.12590714797723
  C           4.00563917317662     -2.73968493581458     -1.05909919325994
  C           4.50316232035055     -2.21420307372231     -2.24538168373906
  C           4.35771095069523     -0.85069390719764     -2.54585782396514
  C           3.69377180363657     -0.02854122673126     -1.61742036067999
  C           3.19709283190318     -0.55604049294341     -0.43614742279035
  C           4.89244598785535     -0.33253531963801     -3.79708839763504
  N           4.79229104024871      0.90753668299075     -4.12042497156563
  N           5.34665680100043      1.21971518669042     -5.32489290565783
  C           5.26074975368928      2.46552460957136     -5.66072448534259
  C           5.80496008772968      2.94297952096988     -6.91052395768962
  C           5.69799963765712      4.30635380619010     -7.24727739256591
  C           6.21175221014515      4.79339049769637     -8.43902729397838
  C           6.84832169890911      3.90713615693035     -9.32017042785503
  C           6.96904356101478      2.55724722200691     -9.01614702099836
  C           6.45290035457834      2.05157042850777     -7.81270086233637
  O           6.57908700612781      0.75938424643810     -7.54256405713185
  H           0.05361816486137     -2.55746712201671      8.92374758056157
  H          -1.71358931147317     -1.06587771979731      7.98214246752898
  H          -2.07170562779835     -0.99812882323959      5.51170884788120
  H          -0.69774875633867     -2.40743999503368      4.01087357898132
  H           1.45051815598992     -3.94296029378136      7.42089908445351
  H          -0.51733917281972     -5.81092651709969      5.73835590578933
  H          -0.06882736405720     -8.15639804035368      6.39151879976538
  H           2.21790145980411     -9.12339963483361      6.12620745876682
  H           4.05322941330066     -7.69716786874442      5.21320834982971
  H           3.61366106514667     -5.34254626032991      4.59030828444613
  H           1.55304198390058     -5.38493550211381      2.43705815546384
  H           2.44353676947358     -4.46913326962735      0.35171067956746
  H           3.02208600598654     -0.64987258419320      2.27758696501174
  H           2.13756890216928     -1.56833704497104      4.36423048584424
  H           4.15728666207253     -3.80001832050034     -0.84567524431480
  H           5.02304357201295     -2.86725727408479     -2.95207247966896
  H           3.56560929496309      1.03254140614573     -1.84287069575414
  H           2.66554364310980      0.10289945120075      0.25413914387211
  H           5.39446839962329     -1.04655839354259     -4.47029033458243
  H           4.76679972274170      3.18287283387526     -4.98745961208396
  H           5.19770359179617      4.97732055153470     -6.54294689432787
  H           6.12282173158726      5.85283270126247     -8.68883574576183
  H           7.25791878337095      4.27968031848911    -10.26323940898893
  H           7.46422090907577      1.86456482579107     -9.70074313322614
  H           6.15252741788303      0.60062046680745     -6.64798795511673
